 ****** HSPICE -- F-2011.09-SP2 32-BIT (Feb 27 2012) linux ******               
  Copyright (C) 2011 Synopsys, Inc. All Rights Reserved.                        
  Unpublished-rights reserved under US copyright laws.
  This program is protected by law and is subject to the
  terms and conditions of the license agreement from Synopsys.
  Use of this program is your acceptance to be bound by the
  license agreement. HSPICE is the trademark of Synopsys, Inc.
  Input File: cml-48_aaa_122.sp                                                 
  Command line options: cml-48_aaa_122.sp
 lic:  
 lic: FLEXlm: v10.8 
 lic: USER:   teramoto             HOSTNAME: fortissimo 
 lic: HOSTID: 003048be7cf2         PID:      26110 
 lic: Using FLEXlm license file: 
 lic: 1700@vdec-cad3 
 lic: Checkout 1 hspice 
 lic: License/Maintenance for hspice will expire on 31-mar-2016/2014.09 
 lic: 22(in_use)/180(total) FLOATING license(s) on SERVER vdec-cad3 
 lic:   
  **info**  the obsolete option nopage is ignored

 **warning**  runlvl smaller than 5, reset to 5  when accurate turned on
 scientific notation:
 a=10**-18  f=10**-15  p=10**-12  n=10**-9  u=10**-6
 m=10**-3   k=10**3    x=10**6    g=10**9 

 **warning**  runlvl smaller than 5, reset to 5  when accurate turned on
1****** HSPICE -- F-2011.09-SP2 32-BIT (Feb 27 2012) linux ******               
 ******  
 *** differential amplifier ***

  ******  circuit name directory
 circuit number to circuit name directory
   number circuitname                     definition         multiplier
        0 main circuit
        1 xi0.                            sadou4             1.00 
        2 xi2.                            sadou8             1.00 
        3 xi0.xr0.                        rppolyl_rf         1.00 
        4 xi0.xr2.                        rppolyl_rf         1.00 
        5 xi0.xr1.                        rppolyl_rf         1.00 
        6 xi0.xm0.                        nmos_rf            1.00 
        7 xi0.xm2.                        nmos_rf            1.00 
        8 xi0.xm1.                        nmos_rf            1.00 
        9 xi2.xr0.                        rppolyl_rf         1.00 
       10 xi2.xr2.                        rppolyl_rf         1.00 
       11 xi2.xr1.                        rppolyl_rf         1.00 
       12 xi2.xm0.                        nmos_rf            1.00 
       13 xi2.xm2.                        nmos_rf            1.00 
       14 xi2.xm1.                        nmos_rf            1.00 


 circuit parameter definitions
  parameter          =  value 

     0:aaa                                                     = 1.220000e-04   
     0:bfa                                                     = 1.000000e+00   
     0:isa                                                     = 1.000000e+00   
     0:nfa                                                     = 1.000000e+00   
     0:rba                                                     = 1.000000e+00   
     0:rea                                                     = 1.000000e+00   
     0:rca                                                     = 1.000000e+00   
     0:rbma                                                    = 1.000000e+00   
     0:cjea                                                    = 1.000000e+00   
     0:cjca                                                    = 1.000000e+00   
     0:par_bjtp1                                               = 0.000000e+00   
     0:par_bjtp2                                               = 0.000000e+00   
     0:is_d                                                    = 1.000000e+00   
     0:x_jsw_d                                                 = 0.000000e+00   
     0:n_d                                                     = 1.000000e+00   
     0:rs_d                                                    = 1.000000e+00   
     0:cj_d                                                    = 1.000000e+00   
     0:cjsw_d                                                  = 1.000000e+00   
     0:is_d_33                                                 = 1.000000e+00   
     0:x_jsw_d_33                                              = 0.000000e+00   
     0:n_d_33                                                  = 1.000000e+00   
     0:rs_d_33                                                 = 1.000000e+00   
     0:cj_d_33                                                 = 1.000000e+00   
     0:cjsw_d_33                                               = 1.000000e+00   
     0:par_mim                                                 = 0.000000e+00   
     0:cmimbb_mimfac                                           = 1.000000e+00   
     0:cmimbb2p0_mimfac                                        = 1.000000e+00   
     0:cm5bb_mimfac                                            = 1.000000e+00   
     0:is_d_dnw                                                = 1.000000e+00   
     0:x_jsw_d_dnw                                             = 0.000000e+00   
     0:n_d_dnw                                                 = 1.000000e+00   
     0:rs_d_dnw                                                = 1.000000e+00   
     0:cj_d_dnw                                                = 1.000000e+00   
     0:cjsw_d_dnw                                              = 1.000000e+00   
     0:is_d_18                                                 = 1.000000e+00   
     0:x_jsw_d_18                                              = 0.000000e+00   
     0:n_d_18                                                  = 1.000000e+00   
     0:rs_d_18                                                 = 1.000000e+00   
     0:cj_d_18                                                 = 1.000000e+00   
     0:cjsw_d_18                                               = 1.000000e+00   
     0:bfb                                                     = 1.000000e+00   
     0:isb                                                     = 1.000000e+00   
     0:nfb                                                     = 1.000000e+00   
     0:rbb                                                     = 1.000000e+00   
     0:reb                                                     = 1.000000e+00   
     0:rcb                                                     = 1.000000e+00   
     0:rbmb                                                    = 1.000000e+00   
     0:cjeb                                                    = 1.000000e+00   
     0:cjcb                                                    = 1.000000e+00   
     0:par_bjtn1                                               = 0.000000e+00   
     0:par_bjtn2                                               = 0.000000e+00   
     0:noiseflagn_33                                           = 0.000000e+00   
     0:noiseflagp_33                                           = 0.000000e+00   
     0:ccoflag_33                                              = 0.000000e+00   
     0:rgflag_33                                               = 0.000000e+00   
     0:parn1_33                                                = 0.000000e+00   
     0:parn2_33                                                = 0.000000e+00   
     0:parp1_33                                                = 0.000000e+00   
     0:parp2_33                                                = 0.000000e+00   
     0:toxn_33                                                 = 5.600000e-09   
     0:dxln_33                                                 = 0.000000e+00   
     0:dxwn_33                                                 = 0.000000e+00   
     0:cjn_33                                                  = 1.051000e-03   
     0:cjswn_33                                                = 1.355000e-10   
     0:cjswgn_33                                               = 1.621000e-10   
     0:dlcn_33                                                 = 4.654000e-08   
     0:cgon_33                                                 = 3.855000e-11   
     0:cgln_33                                                 = 2.513000e-10   
     0:dvthn_33                                                = 0.000000e+00   
     0:dlvthn_33                                               = 0.000000e+00   
     0:dwvthn_33                                               = 0.000000e+00   
     0:dpvthn_33                                               = 0.000000e+00   
     0:du0n_33                                                 = 0.000000e+00   
     0:dlu0n_33                                                = 0.000000e+00   
     0:dwu0n_33                                                = 0.000000e+00   
     0:dpu0n_33                                                = 0.000000e+00   
     0:dcitn_33                                                = 0.000000e+00   
     0:dlcitn_33                                               = 0.000000e+00   
     0:dwcitn_33                                               = 0.000000e+00   
     0:dpcitn_33                                               = 0.000000e+00   
     0:dk2n_33                                                 = 0.000000e+00   
     0:dlk2n_33                                                = 0.000000e+00   
     0:dwk2n_33                                                = 0.000000e+00   
     0:dpk2n_33                                                = 0.000000e+00   
     0:cfn_33                                                  = 9.000000e-11   
     0:dk2_33                                                  = 0.000000e+00   
     0:dxlp_33                                                 = 0.000000e+00   
     0:dxwp_33                                                 = 0.000000e+00   
     0:toxp_33                                                 = 5.900000e-09   
     0:cjp_33                                                  = 1.120000e-03   
     0:cjswp_33                                                = 9.000000e-11   
     0:cjswgp_33                                               = 1.700000e-10   
     0:dlcp_33                                                 = 5.490490e-08   
     0:cgop_33                                                 = 5.233240e-11   
     0:cglp_33                                                 = 2.689070e-10   
     0:dvthp_33                                                = 0.000000e+00   
     0:dlvthp_33                                               = 0.000000e+00   
     0:dwvthp_33                                               = 0.000000e+00   
     0:dpvthp_33                                               = 0.000000e+00   
     0:du0p_33                                                 = 0.000000e+00   
     0:dlu0p_33                                                = 0.000000e+00   
     0:dwu0p_33                                                = 0.000000e+00   
     0:dpu0p_33                                                = 0.000000e+00   
     0:dnfactorp_33                                            = 0.000000e+00   
     0:dlnfactorp_33                                           = 0.000000e+00   
     0:dwnfactorp_33                                           = 0.000000e+00   
     0:dpnfactorp_33                                           = 0.000000e+00   
     0:dcitp_33                                                = 0.000000e+00   
     0:dlcitp_33                                               = 0.000000e+00   
     0:dwcitp_33                                               = 0.000000e+00   
     0:dpcitp_33                                               = 0.000000e+00   
     0:dvsatp_33                                               = 0.000000e+00   
     0:dlvsatp_33                                              = 0.000000e+00   
     0:dwvsatp_33                                              = 0.000000e+00   
     0:dpvsatp_33                                              = 0.000000e+00   
     0:dleta0p_33                                              = 0.000000e+00   
     0:dpeta0p_33                                              = 0.000000e+00   
     0:dla0p_33                                                = 0.000000e+00   
     0:dwa0p_33                                                = 0.000000e+00   
     0:dpa0p_33                                                = 0.000000e+00   
     0:dlk2_33                                                 = 0.000000e+00   
     0:dwk2_33                                                 = 0.000000e+00   
     0:dpk2_33                                                 = 0.000000e+00   
     0:cfp_33                                                  = 9.000000e-11   
     0:b1fn_33                                                 =-7.250000e+40   
     0:b2fn_33                                                 = 4.750000e+22   
     0:b3fn_33                                                 =-1.925000e+08   
     0:a1fn_33                                                 = 8.975000e+41   
     0:a2fn_33                                                 = 4.750000e+22   
     0:a3fn_33                                                 = 4.825000e+08   
     0:c1fn_33                                                 = 2.050000e+41   
     0:c2fn_33                                                 = 4.000000e+10   
     0:c3fn_33                                                 = 5.350000e+08   
     0:b1fp_33                                                 =-3.550000e+41   
     0:b2fp_33                                                 = 0.000000e+00   
     0:b3fp_33                                                 =-2.225000e+09   
     0:a1fp_33                                                 = 1.573000e+42   
     0:a2fp_33                                                 = 0.000000e+00   
     0:a3fp_33                                                 = 4.825000e+09   
     0:c1fp_33                                                 = 8.050000e+41   
     0:c2fp_33                                                 = 4.000000e+10   
     0:c3fp_33                                                 = 5.350000e+09   
     0:noian_33                                                = 2.050000e+41   
     0:noibn_33                                                = 4.000000e+10   
     0:noicn_33                                                = 5.350000e+08   
     0:noiap_33                                                = 8.050000e+41   
     0:noibp_33                                                = 4.000000e+10   
     0:noicp_33                                                = 5.350000e+09   
     0:rtmom_momfac                                            = 1.000000e+00   
     0:l_momfac                                                = 1.000000e+00   
     0:r_momfac                                                = 1.000000e+00   
     0:par_rfmom                                               = 0.000000e+00   
     0:cgmin_var25                                             = 1.000000e+00   
     0:dcg_var25                                               = 1.000000e+00   
     0:dxl_var25                                               = 0.000000e+00   
     0:dxw_var25                                               = 0.000000e+00   
     0:noiseflagn_18                                           = 0.000000e+00   
     0:noiseflagp_18                                           = 0.000000e+00   
     0:ccoflag_18                                              = 0.000000e+00   
     0:rgflag_18                                               = 0.000000e+00   
     0:parn1_18                                                = 0.000000e+00   
     0:parn2_18                                                = 0.000000e+00   
     0:parp1_18                                                = 0.000000e+00   
     0:parp2_18                                                = 0.000000e+00   
     0:toxn_18                                                 = 5.600000e-09   
     0:dxln_18                                                 = 0.000000e+00   
     0:dxwn_18                                                 = 0.000000e+00   
     0:cjn_18                                                  = 1.051000e-03   
     0:cjswn_18                                                = 1.355000e-10   
     0:cjswgn_18                                               = 1.621000e-10   
     0:dlcn_18                                                 = 4.654000e-08   
     0:cgon_18                                                 = 3.855000e-11   
     0:cgln_18                                                 = 2.513000e-10   
     0:dvthn_18                                                = 0.000000e+00   
     0:dlvthn_18                                               = 0.000000e+00   
     0:dwvthn_18                                               = 0.000000e+00   
     0:dpvthn_18                                               = 0.000000e+00   
     0:du0n_18                                                 = 0.000000e+00   
     0:dlu0n_18                                                = 0.000000e+00   
     0:dwu0n_18                                                = 0.000000e+00   
     0:dpu0n_18                                                = 0.000000e+00   
     0:dcitn_18                                                = 0.000000e+00   
     0:dlcitn_18                                               = 0.000000e+00   
     0:dwcitn_18                                               = 0.000000e+00   
     0:dpcitn_18                                               = 0.000000e+00   
     0:deta0n_18                                               = 0.000000e+00   
     0:dleta0n_18                                              = 0.000000e+00   
     0:dweta0n_18                                              = 0.000000e+00   
     0:dpeta0n_18                                              = 0.000000e+00   
     0:dk2n_18                                                 = 0.000000e+00   
     0:dlk2n_18                                                = 0.000000e+00   
     0:dwk2n_18                                                = 0.000000e+00   
     0:dpk2n_18                                                = 0.000000e+00   
     0:cfn_18                                                  = 9.000000e-11   
     0:dk2_18                                                  = 0.000000e+00   
     0:dxlp_18                                                 = 0.000000e+00   
     0:dxwp_18                                                 = 0.000000e+00   
     0:toxp_18                                                 = 5.900000e-09   
     0:cjp_18                                                  = 1.120000e-03   
     0:cjswp_18                                                = 9.000000e-11   
     0:cjswgp_18                                               = 1.700000e-10   
     0:dlcp_18                                                 = 5.490490e-08   
     0:cgop_18                                                 = 5.233240e-11   
     0:cglp_18                                                 = 2.689070e-10   
     0:dvthp_18                                                = 0.000000e+00   
     0:dlvthp_18                                               = 0.000000e+00   
     0:dwvthp_18                                               = 0.000000e+00   
     0:dpvthp_18                                               = 0.000000e+00   
     0:du0p_18                                                 = 0.000000e+00   
     0:dlu0p_18                                                = 0.000000e+00   
     0:dwu0p_18                                                = 0.000000e+00   
     0:dpu0p_18                                                = 0.000000e+00   
     0:dnfactorp_18                                            = 0.000000e+00   
     0:dlnfactorp_18                                           = 0.000000e+00   
     0:dwnfactorp_18                                           = 0.000000e+00   
     0:dpnfactorp_18                                           = 0.000000e+00   
     0:dcitp_18                                                = 0.000000e+00   
     0:dlcitp_18                                               = 0.000000e+00   
     0:dwcitp_18                                               = 0.000000e+00   
     0:dpcitp_18                                               = 0.000000e+00   
     0:dvsatp_18                                               = 0.000000e+00   
     0:dlvsatp_18                                              = 0.000000e+00   
     0:dwvsatp_18                                              = 0.000000e+00   
     0:dpvsatp_18                                              = 0.000000e+00   
     0:dleta0p_18                                              = 0.000000e+00   
     0:dpeta0p_18                                              = 0.000000e+00   
     0:dla0p_18                                                = 0.000000e+00   
     0:dwa0p_18                                                = 0.000000e+00   
     0:dpa0p_18                                                = 0.000000e+00   
     0:cfp_18                                                  = 9.000000e-11   
     0:dlkt1p_18                                               = 0.000000e+00   
     0:b1fn_18                                                 =-7.250000e+40   
     0:b2fn_18                                                 = 4.750000e+22   
     0:b3fn_18                                                 =-1.925000e+08   
     0:a1fn_18                                                 = 8.975000e+41   
     0:a2fn_18                                                 = 4.750000e+22   
     0:a3fn_18                                                 = 4.825000e+08   
     0:c1fn_18                                                 = 2.050000e+41   
     0:c2fn_18                                                 = 4.000000e+10   
     0:c3fn_18                                                 = 5.350000e+08   
     0:b1fp_18                                                 =-3.550000e+41   
     0:b2fp_18                                                 = 0.000000e+00   
     0:b3fp_18                                                 =-2.225000e+09   
     0:a1fp_18                                                 = 1.573000e+42   
     0:a2fp_18                                                 = 0.000000e+00   
     0:a3fp_18                                                 = 4.825000e+09   
     0:c1fp_18                                                 = 8.050000e+41   
     0:c2fp_18                                                 = 4.000000e+10   
     0:c3fp_18                                                 = 5.350000e+09   
     0:noian_18                                                = 2.050000e+41   
     0:noibn_18                                                = 4.000000e+10   
     0:noicn_18                                                = 5.350000e+08   
     0:noiap_18                                                = 8.050000e+41   
     0:noibp_18                                                = 4.000000e+10   
     0:noicp_18                                                = 5.350000e+09   
     0:rnoiseflag_disres                                       = 0.000000e+00   
     0:par_res_m                                               = 0.000000e+00   
     0:r_rnwod_m                                               = 3.160000e+02   
     0:r_rnwsti_m                                              = 6.050000e+02   
     0:r_rnodl_m                                               = 1.524567e+01   
     0:r_rnods_m                                               = 1.524567e+01   
     0:dxw_rnods_m                                             = 0.000000e+00   
     0:r_rnodwo_m                                              = 1.041410e+02   
     0:dxw_rnodwo_m                                            = 0.000000e+00   
     0:rend_rnodwo_m                                           = 5.320000e-06   
     0:dxl_rnodwo_m                                            = 0.000000e+00   
     0:r_rpodl_m                                               = 1.455200e+01   
     0:r_rpods_m                                               = 1.455200e+01   
     0:dxw_rpods_m                                             = 0.000000e+00   
     0:r_rpodwo_m                                              = 2.573520e+02   
     0:dxw_rpodwo_m                                            = 0.000000e+00   
     0:rend_rpodwo_m                                           = 4.980000e-06   
     0:dxl_rpodwo_m                                            = 0.000000e+00   
     0:r_rnpolyl_m                                             = 1.539650e+01   
     0:r_rnpolys_m                                             = 1.539650e+01   
     0:dxw_rnpolys_m                                           = 0.000000e+00   
     0:r_rnpolywo_m                                            = 1.244470e+02   
     0:dxw_rnpolywo_m                                          = 0.000000e+00   
     0:rend_rnpolywo_m                                         = 4.270000e-06   
     0:dxl_rnpolywo_m                                          = 0.000000e+00   
     0:r_rppolyl_m                                             = 1.481890e+01   
     0:r_rppolys_m                                             = 1.481890e+01   
     0:dxw_rppolys_m                                           = 0.000000e+00   
     0:r_rppolywo_m                                            = 7.562064e+02   
     0:dxw_rppolywo_m                                          = 0.000000e+00   
     0:rend_rppolywo_m                                         = 6.340000e-07   
     0:dxl_rppolywo_m                                          = 0.000000e+00   
     0:ca_pofox                                                = 1.077000e-16   
     0:cf_polfox                                               = 5.510000e-17   
     0:cf_posfox                                               = 4.280000e-17   
     0:a1_rnpolywo_dis                                         = 4.250000e-23   
     0:a1_rppolywo_dis                                         =-1.750000e-23   
     0:b1_rnpolywo_dis                                         = 4.750000e-23   
     0:b1_rppolywo_dis                                         = 4.250000e-23   
     0:c1_rnpolywo_dis                                         = 7.500000e-23   
     0:c1_rppolywo_dis                                         = 7.500000e-23   
     0:kf_rnpolywo_dis                                         = 7.500000e-23   
     0:kf_rppolywo_dis                                         = 7.500000e-23   
     0:rnoiseflag_res                                          = 0.000000e+00   
     0:par_res                                                 = 0.000000e+00   
     0:r_rnodwo                                                = 1.041410e+02   
     0:rend_rnodwo                                             = 5.320000e-06   
     0:dxw_rnodwo                                              = 0.000000e+00   
     0:dxl_rnodwo                                              = 0.000000e+00   
     0:r_rpodwo                                                = 2.573520e+02   
     0:rend_rpodwo                                             = 4.980000e-06   
     0:dxw_rpodwo                                              = 0.000000e+00   
     0:dxl_rpodwo                                              = 0.000000e+00   
     0:r_rnpolywo                                              = 1.244470e+02   
     0:rend_rnpolywo                                           = 4.270000e-06   
     0:dxw_rnpolywo                                            = 0.000000e+00   
     0:dxl_rnpolywo                                            = 0.000000e+00   
     0:r_rppolywo                                              = 7.562064e+02   
     0:rend_rppolywo                                           = 6.340000e-07   
     0:dxw_rppolywo                                            = 0.000000e+00   
     0:dxl_rppolywo                                            = 0.000000e+00   
     0:r_rppolyl                                               = 1.481890e+01   
     0:r_rppolys                                               = 1.481890e+01   
     0:dxw_rppolys                                             = 0.000000e+00   
     0:r_rnpolyl                                               = 1.539650e+01   
     0:r_rnpolys                                               = 1.539650e+01   
     0:dxw_rnpolys                                             = 0.000000e+00   
     0:r_rnodl                                                 = 1.524567e+01   
     0:r_rnods                                                 = 1.524567e+01   
     0:dxw_rnods                                               = 0.000000e+00   
     0:r_rpodl                                                 = 1.455200e+01   
     0:r_rpods                                                 = 1.455200e+01   
     0:dxw_rpods                                               = 0.000000e+00   
     0:r_rnwod                                                 = 3.160000e+02   
     0:r_rnwsti                                                = 6.050000e+02   
     0:r_rm1l                                                  = 8.680000e-02   
     0:r_rm1s                                                  = 1.600000e-01   
     0:r_rm1w                                                  = 1.370000e-01   
     0:r_rm2l                                                  = 7.780000e-02   
     0:r_rm2s                                                  = 1.399000e-01   
     0:r_rm2w                                                  = 1.190000e-01   
     0:r_rm3l                                                  = 7.780000e-02   
     0:r_rm3s                                                  = 1.399000e-01   
     0:r_rm3w                                                  = 1.190000e-01   
     0:r_rm4l                                                  = 7.780000e-02   
     0:r_rm4s                                                  = 1.399000e-01   
     0:r_rm4w                                                  = 1.190000e-01   
     0:r_rm5l                                                  = 7.780000e-02   
     0:r_rm5s                                                  = 1.399000e-01   
     0:r_rm5w                                                  = 1.190000e-01   
     0:r_rm6l                                                  = 7.780000e-02   
     0:r_rm6s                                                  = 1.399000e-01   
     0:r_rm6w                                                  = 1.190000e-01   
     0:r_rm7l                                                  = 7.780000e-02   
     0:r_rm7s                                                  = 1.399000e-01   
     0:r_rm7w                                                  = 1.190000e-01   
     0:r_rm8l                                                  = 2.150000e-02   
     0:r_rm8s                                                  = 2.180000e-02   
     0:r_rm8w                                                  = 2.270000e-02   
     0:r_rm9l                                                  = 2.150000e-02   
     0:r_rm9s                                                  = 2.180000e-02   
     0:r_rm9w                                                  = 2.270000e-02   
     0:r_rm10                                                  = 2.100000e-02   
     0:r_rmxl                                                  = 7.780000e-02   
     0:r_rmxs                                                  = 1.399000e-01   
     0:r_rmxw                                                  = 1.190000e-01   
     0:r_rmzl                                                  = 2.150000e-02   
     0:r_rmzs                                                  = 2.180000e-02   
     0:r_rmzw                                                  = 2.270000e-02   
     0:b1_rnpolywo                                             =-1.750000e-23   
     0:b1_rppolywo                                             =-1.750000e-23   
     0:a1_rnpolywo                                             = 4.750000e-23   
     0:a1_rppolywo                                             = 4.250000e-23   
     0:c1_rnpolywo                                             = 7.500000e-23   
     0:c1_rppolywo                                             = 7.500000e-23   
     0:kf_rnpolywo                                             = 7.500000e-23   
     0:kf_rppolywo                                             = 7.500000e-23   
     0:is_d_na                                                 = 1.000000e+00   
     0:x_jsw_d_na                                              = 0.000000e+00   
     0:n_d_na                                                  = 1.000000e+00   
     0:rs_d_na                                                 = 1.000000e+00   
     0:cj_d_na                                                 = 1.000000e+00   
     0:cjsw_d_na                                               = 1.000000e+00   
     0:scale_mos_33_rf                                         = 1.000000e+00   
     0:noiseflagnrf_33                                         = 0.000000e+00   
     0:noiseflagprf_33                                         = 0.000000e+00   
     0:parn1rf_33                                              = 0.000000e+00   
     0:parn2rf_33                                              = 0.000000e+00   
     0:parp1rf_33                                              = 0.000000e+00   
     0:parp2rf_33                                              = 0.000000e+00   
     0:toxnrf_33                                               = 5.600000e-09   
     0:dxlnrf_33                                               = 0.000000e+00   
     0:dxwnrf_33                                               = 0.000000e+00   
     0:cjnrf_33                                                = 1.051000e-03   
     0:cjswnrf_33                                              = 1.355000e-10   
     0:cjswgnrf_33                                             = 1.621000e-10   
     0:dlcnrf_33                                               = 4.654000e-08   
     0:cgonrf_33                                               = 3.855000e-11   
     0:cglnrf_33                                               = 2.513000e-10   
     0:dvthnrf_33                                              = 0.000000e+00   
     0:dlvthnrf_33                                             = 0.000000e+00   
     0:dwvthnrf_33                                             = 0.000000e+00   
     0:dpvthnrf_33                                             = 0.000000e+00   
     0:du0nrf_33                                               = 0.000000e+00   
     0:dlu0nrf_33                                              = 0.000000e+00   
     0:dwu0nrf_33                                              = 0.000000e+00   
     0:dpu0nrf_33                                              = 0.000000e+00   
     0:dcitnrf_33                                              = 0.000000e+00   
     0:dlcitnrf_33                                             = 0.000000e+00   
     0:dwcitnrf_33                                             = 0.000000e+00   
     0:dpcitnrf_33                                             = 0.000000e+00   
     0:dk2nrf_33                                               = 0.000000e+00   
     0:dlk2nrf_33                                              = 0.000000e+00   
     0:dwk2nrf_33                                              = 0.000000e+00   
     0:dpk2nrf_33                                              = 0.000000e+00   
     0:cfnrf_33                                                = 1.140000e-10   
     0:dk2rf_33                                                = 0.000000e+00   
     0:dxlprf_33                                               = 0.000000e+00   
     0:dxwprf_33                                               = 0.000000e+00   
     0:toxprf_33                                               = 5.900000e-09   
     0:cjprf_33                                                = 1.120000e-03   
     0:cjswprf_33                                              = 9.000000e-11   
     0:cjswgprf_33                                             = 1.700000e-10   
     0:dlcprf_33                                               = 5.490490e-08   
     0:cgoprf_33                                               = 5.233240e-11   
     0:cglprf_33                                               = 2.689070e-10   
     0:dvthprf_33                                              = 0.000000e+00   
     0:dlvthprf_33                                             = 0.000000e+00   
     0:dwvthprf_33                                             = 0.000000e+00   
     0:dpvthprf_33                                             = 0.000000e+00   
     0:du0prf_33                                               = 0.000000e+00   
     0:dlu0prf_33                                              = 0.000000e+00   
     0:dwu0prf_33                                              = 0.000000e+00   
     0:dpu0prf_33                                              = 0.000000e+00   
     0:dnfactorprf_33                                          = 0.000000e+00   
     0:dlnfactorprf_33                                         = 0.000000e+00   
     0:dwnfactorprf_33                                         = 0.000000e+00   
     0:dpnfactorprf_33                                         = 0.000000e+00   
     0:dcitprf_33                                              = 0.000000e+00   
     0:dlcitprf_33                                             = 0.000000e+00   
     0:dwcitprf_33                                             = 0.000000e+00   
     0:dpcitprf_33                                             = 0.000000e+00   
     0:dvsatprf_33                                             = 0.000000e+00   
     0:dlvsatprf_33                                            = 0.000000e+00   
     0:dwvsatprf_33                                            = 0.000000e+00   
     0:dpvsatprf_33                                            = 0.000000e+00   
     0:dleta0prf_33                                            = 0.000000e+00   
     0:dpeta0prf_33                                            = 0.000000e+00   
     0:dla0prf_33                                              = 0.000000e+00   
     0:dwa0prf_33                                              = 0.000000e+00   
     0:dpa0prf_33                                              = 0.000000e+00   
     0:dlk2rf_33                                               = 0.000000e+00   
     0:dwk2rf_33                                               = 0.000000e+00   
     0:dpk2rf_33                                               = 0.000000e+00   
     0:cfprf_33                                                = 1.140000e-10   
     0:b1fnrf_33                                               =-7.250000e+40   
     0:b2fnrf_33                                               = 4.750000e+22   
     0:b3fnrf_33                                               =-1.925000e+08   
     0:a1fnrf_33                                               = 8.975000e+41   
     0:a2fnrf_33                                               = 4.750000e+22   
     0:a3fnrf_33                                               = 4.825000e+08   
     0:c1fnrf_33                                               = 2.050000e+41   
     0:c2fnrf_33                                               = 4.000000e+10   
     0:c3fnrf_33                                               = 5.350000e+08   
     0:b1fprf_33                                               =-3.550000e+41   
     0:b2fprf_33                                               = 0.000000e+00   
     0:b3fprf_33                                               =-2.225000e+09   
     0:a1fprf_33                                               = 1.573000e+42   
     0:a2fprf_33                                               = 0.000000e+00   
     0:a3fprf_33                                               = 4.825000e+09   
     0:c1fprf_33                                               = 8.050000e+41   
     0:c2fprf_33                                               = 4.000000e+10   
     0:c3fprf_33                                               = 5.350000e+09   
     0:noianrf_33                                              = 2.050000e+41   
     0:noibnrf_33                                              = 4.000000e+10   
     0:noicnrf_33                                              = 5.350000e+08   
     0:noiaprf_33                                              = 8.050000e+41   
     0:noibprf_33                                              = 4.000000e+10   
     0:noicprf_33                                              = 5.350000e+09   
     0:is_d_hvt                                                = 1.000000e+00   
     0:x_jsw_d_hvt                                             = 0.000000e+00   
     0:n_d_hvt                                                 = 1.000000e+00   
     0:rs_d_hvt                                                = 1.000000e+00   
     0:cj_d_hvt                                                = 1.000000e+00   
     0:cjsw_d_hvt                                              = 1.000000e+00   
     0:l_mvfacrf                                               = 1.000000e+00   
     0:rm_mvfacrf                                              = 1.000000e+00   
     0:rsub_mvfacrf                                            = 1.000000e+00   
     0:csub_mvfacrf                                            = 1.000000e+00   
     0:toxm_varrf                                              = 2.000000e+01   
     0:ndep0_varrf                                             = 3.800000e+00   
     0:pndep_varrf                                             = 3.000000e-14   
     0:fac_varrf                                               = 1.000000e+00   
     0:rs0_varrf                                               = 8.000000e+00   
     0:dxl_varrf                                               = 0.000000e+00   
     0:dxw_varrf                                               = 0.000000e+00   
     0:scale_mos_18_rf                                         = 1.000000e+00   
     0:noiseflagnrf_18                                         = 0.000000e+00   
     0:noiseflagprf_18                                         = 0.000000e+00   
     0:parn1rf_18                                              = 0.000000e+00   
     0:parn2rf_18                                              = 0.000000e+00   
     0:parp1rf_18                                              = 0.000000e+00   
     0:parp2rf_18                                              = 0.000000e+00   
     0:toxnrf_18                                               = 5.600000e-09   
     0:dxlnrf_18                                               = 0.000000e+00   
     0:dxwnrf_18                                               = 0.000000e+00   
     0:cjnrf_18                                                = 1.051000e-03   
     0:cjswnrf_18                                              = 1.355000e-10   
     0:cjswgnrf_18                                             = 1.621000e-10   
     0:dlcnrf_18                                               = 4.654000e-08   
     0:cgonrf_18                                               = 3.855000e-11   
     0:cglnrf_18                                               = 2.513000e-10   
     0:dvthnrf_18                                              = 0.000000e+00   
     0:dlvthnrf_18                                             = 0.000000e+00   
     0:dwvthnrf_18                                             = 0.000000e+00   
     0:dpvthnrf_18                                             = 0.000000e+00   
     0:du0nrf_18                                               = 0.000000e+00   
     0:dlu0nrf_18                                              = 0.000000e+00   
     0:dwu0nrf_18                                              = 0.000000e+00   
     0:dpu0nrf_18                                              = 0.000000e+00   
     0:dcitnrf_18                                              = 0.000000e+00   
     0:dlcitnrf_18                                             = 0.000000e+00   
     0:dwcitnrf_18                                             = 0.000000e+00   
     0:dpcitnrf_18                                             = 0.000000e+00   
     0:deta0nrf_18                                             = 0.000000e+00   
     0:dleta0nrf_18                                            = 0.000000e+00   
     0:dweta0nrf_18                                            = 0.000000e+00   
     0:dpeta0nrf_18                                            = 0.000000e+00   
     0:dk2nrf_18                                               = 0.000000e+00   
     0:dlk2nrf_18                                              = 0.000000e+00   
     0:dwk2nrf_18                                              = 0.000000e+00   
     0:dpk2nrf_18                                              = 0.000000e+00   
     0:cfnrf_18                                                = 1.140000e-10   
     0:dk2rf_18                                                = 0.000000e+00   
     0:dxlprf_18                                               = 0.000000e+00   
     0:dxwprf_18                                               = 0.000000e+00   
     0:toxprf_18                                               = 5.900000e-09   
     0:cjprf_18                                                = 1.120000e-03   
     0:cjswprf_18                                              = 9.000000e-11   
     0:cjswgprf_18                                             = 1.700000e-10   
     0:dlcprf_18                                               = 5.490490e-08   
     0:cgoprf_18                                               = 5.233240e-11   
     0:cglprf_18                                               = 2.689070e-10   
     0:dvthprf_18                                              = 0.000000e+00   
     0:dlvthprf_18                                             = 0.000000e+00   
     0:dwvthprf_18                                             = 0.000000e+00   
     0:dpvthprf_18                                             = 0.000000e+00   
     0:du0prf_18                                               = 0.000000e+00   
     0:dlu0prf_18                                              = 0.000000e+00   
     0:dwu0prf_18                                              = 0.000000e+00   
     0:dpu0prf_18                                              = 0.000000e+00   
     0:dnfactorprf_18                                          = 0.000000e+00   
     0:dlnfactorprf_18                                         = 0.000000e+00   
     0:dwnfactorprf_18                                         = 0.000000e+00   
     0:dpnfactorprf_18                                         = 0.000000e+00   
     0:dcitprf_18                                              = 0.000000e+00   
     0:dlcitprf_18                                             = 0.000000e+00   
     0:dwcitprf_18                                             = 0.000000e+00   
     0:dpcitprf_18                                             = 0.000000e+00   
     0:dvsatprf_18                                             = 0.000000e+00   
     0:dlvsatprf_18                                            = 0.000000e+00   
     0:dwvsatprf_18                                            = 0.000000e+00   
     0:dpvsatprf_18                                            = 0.000000e+00   
     0:dleta0prf_18                                            = 0.000000e+00   
     0:dpeta0prf_18                                            = 0.000000e+00   
     0:dla0prf_18                                              = 0.000000e+00   
     0:dwa0prf_18                                              = 0.000000e+00   
     0:dpa0prf_18                                              = 0.000000e+00   
     0:cfprf_18                                                = 1.140000e-10   
     0:dlkt1prf_18                                             = 0.000000e+00   
     0:b1fnrf_18                                               =-7.250000e+40   
     0:b2fnrf_18                                               = 4.750000e+22   
     0:b3fnrf_18                                               =-1.925000e+08   
     0:a1fnrf_18                                               = 8.975000e+41   
     0:a2fnrf_18                                               = 4.750000e+22   
     0:a3fnrf_18                                               = 4.825000e+08   
     0:c1fnrf_18                                               = 2.050000e+41   
     0:c2fnrf_18                                               = 4.000000e+10   
     0:c3fnrf_18                                               = 5.350000e+08   
     0:b1fprf_18                                               =-3.550000e+41   
     0:b2fprf_18                                               = 0.000000e+00   
     0:b3fprf_18                                               =-2.225000e+09   
     0:a1fprf_18                                               = 1.573000e+42   
     0:a2fprf_18                                               = 0.000000e+00   
     0:a3fprf_18                                               = 4.825000e+09   
     0:c1fprf_18                                               = 8.050000e+41   
     0:c2fprf_18                                               = 4.000000e+10   
     0:c3fprf_18                                               = 5.350000e+09   
     0:noianrf_18                                              = 2.050000e+41   
     0:noibnrf_18                                              = 4.000000e+10   
     0:noicnrf_18                                              = 5.350000e+08   
     0:noiaprf_18                                              = 8.050000e+41   
     0:noibprf_18                                              = 4.000000e+10   
     0:noicprf_18                                              = 5.350000e+09   
     0:noiseflagn_na                                           = 0.000000e+00   
     0:noiseflagp_na                                           = 0.000000e+00   
     0:ccoflag_na                                              = 0.000000e+00   
     0:rgflag_na                                               = 0.000000e+00   
     0:parn1_na                                                = 0.000000e+00   
     0:parn2_na                                                = 0.000000e+00   
     0:toxn_na                                                 = 2.000000e-09   
     0:dxln_na                                                 = 0.000000e+00   
     0:dxwn_na                                                 = 0.000000e+00   
     0:dvthn_na                                                = 0.000000e+00   
     0:dlvthn_na                                               = 0.000000e+00   
     0:dwvthn_na                                               = 0.000000e+00   
     0:dpvthn_na                                               = 0.000000e+00   
     0:cjn_na                                                  = 1.620000e-04   
     0:cjswn_na                                                = 1.270000e-10   
     0:cjswgn_na                                               = 2.950000e-10   
     0:cgon_na                                                 = 1.423060e-10   
     0:cgln_na                                                 = 4.913760e-12   
     0:ddlcn_na                                                = 5.107660e-09   
     0:cfn_na                                                  = 1.390000e-10   
     0:dnfactorn_na                                            = 0.000000e+00   
     0:dlnfactorn_na                                           = 0.000000e+00   
     0:dwnfactorn_na                                           = 0.000000e+00   
     0:dpnfactorn_na                                           = 0.000000e+00   
     0:du0n_na                                                 = 0.000000e+00   
     0:dlu0n_na                                                = 0.000000e+00   
     0:dwu0n_na                                                = 0.000000e+00   
     0:dpu0n_na                                                = 0.000000e+00   
     0:deta0n_na                                               = 0.000000e+00   
     0:dleta0n_na                                              = 0.000000e+00   
     0:dweta0n_na                                              = 0.000000e+00   
     0:dpeta0n_na                                              = 0.000000e+00   
     0:drdswn_na                                               = 0.000000e+00   
     0:dcdscdn_na                                              = 0.000000e+00   
     0:dk2n_na                                                 = 0.000000e+00   
     0:dlk2n_na                                                = 0.000000e+00   
     0:dwk2n_na                                                = 0.000000e+00   
     0:dpk2n_na                                                = 0.000000e+00   
     0:dcitn_na                                                = 0.000000e+00   
     0:dlcitn_na                                               = 0.000000e+00   
     0:dwcitn_na                                               = 0.000000e+00   
     0:dpcitn_na                                               = 0.000000e+00   
     0:ntoxn_na                                                = 1.000000e+00   
     0:dagsn_na                                                = 0.000000e+00   
     0:dlagsn_na                                               = 0.000000e+00   
     0:dwagsn_na                                               = 0.000000e+00   
     0:dpagsn_na                                               = 0.000000e+00   
     0:dla0_na                                                 = 0.000000e+00   
     0:dvsat_na                                                = 0.000000e+00   
     0:dlvsat_na                                               = 0.000000e+00   
     0:dwvsat_na                                               = 0.000000e+00   
     0:dpvsat_na                                               = 0.000000e+00   
     0:b1fn_na                                                 =-5.625000e+41   
     0:b2fn_na                                                 =-6.750000e+13   
     0:b3fn_na                                                 =-1.125000e+07   
     0:a1fn_na                                                 = 4.413000e+42   
     0:a2fn_na                                                 = 0.000000e+00   
     0:a3fn_na                                                 =-1.175000e+07   
     0:c1fn_na                                                 = 1.175000e+42   
     0:c2fn_na                                                 = 1.500000e+14   
     0:c3fn_na                                                 = 2.350000e+07   
     0:noian_na                                                = 1.175000e+42   
     0:noibn_na                                                = 1.500000e+14   
     0:noicn_na                                                = 2.350000e+07   
     0:is_d_na33                                               = 1.000000e+00   
     0:x_jsw_d_na33                                            = 0.000000e+00   
     0:n_d_na33                                                = 1.000000e+00   
     0:rs_d_na33                                               = 1.000000e+00   
     0:cj_d_na33                                               = 1.000000e+00   
     0:cjsw_d_na33                                             = 1.000000e+00   
     0:is_d_lvt                                                = 1.000000e+00   
     0:x_jsw_d_lvt                                             = 0.000000e+00   
     0:n_d_lvt                                                 = 1.000000e+00   
     0:rs_d_lvt                                                = 1.000000e+00   
     0:cj_d_lvt                                                = 1.000000e+00   
     0:cjsw_d_lvt                                              = 1.000000e+00   
     0:par_rfres_sa                                            = 0.000000e+00   
     0:rppolylrf                                               = 1.481890e+01   
     0:rppolysrf                                               = 1.481890e+01   
     0:sal_fac                                                 = 1.000000e+00   
     0:sarsub_fac                                              = 1.000000e+00   
     0:sacsub_fac                                              = 1.000000e+00   
     0:dxw_rppolysrf                                           = 0.000000e+00   
     0:ca_pofoxrf                                              = 1.077000e-16   
     0:cf_polfoxrf                                             = 5.510000e-17   
     0:cf_posfoxrf                                             = 4.280000e-17   
     0:noiseflagn_na33                                         = 0.000000e+00   
     0:noiseflagp_na33                                         = 0.000000e+00   
     0:ccoflag_na33                                            = 0.000000e+00   
     0:rgflag_na33                                             = 0.000000e+00   
     0:parn1_na33                                              = 0.000000e+00   
     0:parn2_na33                                              = 0.000000e+00   
     0:parp1_na33                                              = 0.000000e+00   
     0:parp2_na33                                              = 0.000000e+00   
     0:toxn_na33                                               = 5.600000e-09   
     0:dxln_na33                                               = 0.000000e+00   
     0:dxwn_na33                                               = 0.000000e+00   
     0:cjn_na33                                                = 1.451590e-04   
     0:cjswn_na33                                              = 1.690000e-10   
     0:cjswgn_na33                                             = 1.177630e-10   
     0:cgon_na33                                               = 5.478590e-11   
     0:cgln_na33                                               = 7.578360e-10   
     0:ddlcn_na33                                              = 1.301530e-07   
     0:dvthn_na33                                              = 0.000000e+00   
     0:dlvthn_na33                                             = 0.000000e+00   
     0:dwvthn_na33                                             = 0.000000e+00   
     0:dpvthn_na33                                             = 0.000000e+00   
     0:du0n_na33                                               = 0.000000e+00   
     0:dlu0n_na33                                              = 0.000000e+00   
     0:dwu0n_na33                                              = 0.000000e+00   
     0:dpu0n_na33                                              = 0.000000e+00   
     0:dcitn_na33                                              = 0.000000e+00   
     0:dlcitn_na33                                             = 0.000000e+00   
     0:dwcitn_na33                                             = 0.000000e+00   
     0:dpcitn_na33                                             = 0.000000e+00   
     0:dnfactorn_na33                                          = 0.000000e+00   
     0:dlnfactorn_na33                                         = 0.000000e+00   
     0:dwnfactorn_na33                                         = 0.000000e+00   
     0:dpnfactorn_na33                                         = 0.000000e+00   
     0:dvsatn_na33                                             = 0.000000e+00   
     0:dlvsatn_na33                                            = 0.000000e+00   
     0:dwvsatn_na33                                            = 0.000000e+00   
     0:dpvsatn_na33                                            = 0.000000e+00   
     0:deta0n_na33                                             = 0.000000e+00   
     0:dleta0n_na33                                            = 0.000000e+00   
     0:dweta0n_na33                                            = 0.000000e+00   
     0:dpeta0n_na33                                            = 0.000000e+00   
     0:cfn_na33                                                = 9.000000e-11   
     0:b1fn_na33                                               =-6.000000e+40   
     0:b2fn_na33                                               =-1.500000e+24   
     0:b3fn_na33                                               =-1.350000e+08   
     0:a1fn_na33                                               = 3.000000e+41   
     0:a2fn_na33                                               = 0.000000e+00   
     0:a3fn_na33                                               = 1.350000e+09   
     0:c1fn_na33                                               = 2.000000e+41   
     0:c2fn_na33                                               = 7.500000e+24   
     0:c3fn_na33                                               = 3.000000e+08   
     0:noian_na33                                              = 2.000000e+41   
     0:noibn_na33                                              = 7.500000e+24   
     0:noicn_na33                                              = 3.000000e+08   
     0:is_d_esd                                                = 1.000000e+00   
     0:x_jsw_d_esd                                             = 0.000000e+00   
     0:n_d_esd                                                 = 1.000000e+00   
     0:rs_d_esd                                                = 1.000000e+00   
     0:cj_d_esd                                                = 1.000000e+00   
     0:cjsw_d_esd                                              = 1.000000e+00   
     0:par_rfmim                                               = 0.000000e+00   
     0:l_mimfac                                                = 1.000000e+00   
     0:cmim_mimfac                                             = 1.000000e+00   
     0:cmim2p0_mimfac                                          = 1.000000e+00   
     0:cm7_mimfac                                              = 1.000000e+00   
     0:rctm_mimfac                                             = 1.000000e+00   
     0:cm5_mimfac                                              = 1.000000e+00   
     0:rsub_mimfac                                             = 1.000000e+00   
     0:csub_mimfac                                             = 1.000000e+00   
     0:is_d_25od33                                             = 1.000000e+00   
     0:x_jsw_d_25od33                                          = 0.000000e+00   
     0:n_d_25od33                                              = 1.000000e+00   
     0:rs_d_25od33                                             = 1.000000e+00   
     0:cj_d_25od33                                             = 1.000000e+00   
     0:cjsw_d_25od33                                           = 1.000000e+00   
     0:noiseflagn_25od33                                       = 0.000000e+00   
     0:noiseflagp_25od33                                       = 0.000000e+00   
     0:ccoflag_25od33                                          = 0.000000e+00   
     0:rgflag_25od33                                           = 0.000000e+00   
     0:parn1_25od33                                            = 0.000000e+00   
     0:parn2_25od33                                            = 0.000000e+00   
     0:parp1_25od33                                            = 0.000000e+00   
     0:parp2_25od33                                            = 0.000000e+00   
     0:toxn_25od33                                             = 5.600000e-09   
     0:dxln_25od33                                             = 0.000000e+00   
     0:dxwn_25od33                                             = 0.000000e+00   
     0:cjn_25od33                                              = 1.051000e-03   
     0:cjswn_25od33                                            = 1.355000e-10   
     0:cjswgn_25od33                                           = 1.621000e-10   
     0:dlcn_25od33                                             = 4.654000e-08   
     0:cgon_25od33                                             = 3.855000e-11   
     0:cgln_25od33                                             = 2.513000e-10   
     0:dvthn_25od33                                            = 0.000000e+00   
     0:dlvthn_25od33                                           = 0.000000e+00   
     0:dwvthn_25od33                                           = 0.000000e+00   
     0:dpvthn_25od33                                           = 0.000000e+00   
     0:du0n_25od33                                             = 0.000000e+00   
     0:dlu0n_25od33                                            = 0.000000e+00   
     0:dwu0n_25od33                                            = 0.000000e+00   
     0:dpu0n_25od33                                            = 0.000000e+00   
     0:dcitn_25od33                                            = 0.000000e+00   
     0:dlcitn_25od33                                           = 0.000000e+00   
     0:dwcitn_25od33                                           = 0.000000e+00   
     0:dpcitn_25od33                                           = 0.000000e+00   
     0:dk2n_25od33                                             = 0.000000e+00   
     0:dlk2n_25od33                                            = 0.000000e+00   
     0:dwk2n_25od33                                            = 0.000000e+00   
     0:dpk2n_25od33                                            = 0.000000e+00   
     0:cfn_25od33                                              = 9.000000e-11   
     0:dk2_25od33                                              = 0.000000e+00   
     0:dxlp_25od33                                             = 0.000000e+00   
     0:dxwp_25od33                                             = 0.000000e+00   
     0:toxp_25od33                                             = 5.900000e-09   
     0:cjp_25od33                                              = 1.120000e-03   
     0:cjswp_25od33                                            = 9.000000e-11   
     0:cjswgp_25od33                                           = 1.700000e-10   
     0:dlcp_25od33                                             = 5.490490e-08   
     0:cgop_25od33                                             = 5.233240e-11   
     0:cglp_25od33                                             = 2.689070e-10   
     0:dvthp_25od33                                            = 0.000000e+00   
     0:dlvthp_25od33                                           = 0.000000e+00   
     0:dwvthp_25od33                                           = 0.000000e+00   
     0:dpvthp_25od33                                           = 0.000000e+00   
     0:du0p_25od33                                             = 0.000000e+00   
     0:dlu0p_25od33                                            = 0.000000e+00   
     0:dwu0p_25od33                                            = 0.000000e+00   
     0:dpu0p_25od33                                            = 0.000000e+00   
     0:dnfactorp_25od33                                        = 0.000000e+00   
     0:dlnfactorp_25od33                                       = 0.000000e+00   
     0:dwnfactorp_25od33                                       = 0.000000e+00   
     0:dpnfactorp_25od33                                       = 0.000000e+00   
     0:dcitp_25od33                                            = 0.000000e+00   
     0:dlcitp_25od33                                           = 0.000000e+00   
     0:dwcitp_25od33                                           = 0.000000e+00   
     0:dpcitp_25od33                                           = 0.000000e+00   
     0:dvsatp_25od33                                           = 0.000000e+00   
     0:dlvsatp_25od33                                          = 0.000000e+00   
     0:dwvsatp_25od33                                          = 0.000000e+00   
     0:dpvsatp_25od33                                          = 0.000000e+00   
     0:dleta0p_25od33                                          = 0.000000e+00   
     0:dpeta0p_25od33                                          = 0.000000e+00   
     0:dla0p_25od33                                            = 0.000000e+00   
     0:dwa0p_25od33                                            = 0.000000e+00   
     0:dpa0p_25od33                                            = 0.000000e+00   
     0:dlk2_25od33                                             = 0.000000e+00   
     0:dwk2_25od33                                             = 0.000000e+00   
     0:dpk2_25od33                                             = 0.000000e+00   
     0:cfp_25od33                                              = 9.000000e-11   
     0:b1fn_25od33                                             =-7.250000e+40   
     0:b2fn_25od33                                             = 4.750000e+22   
     0:b3fn_25od33                                             =-1.925000e+08   
     0:a1fn_25od33                                             = 8.975000e+41   
     0:a2fn_25od33                                             = 4.750000e+22   
     0:a3fn_25od33                                             = 4.825000e+08   
     0:c1fn_25od33                                             = 2.050000e+41   
     0:c2fn_25od33                                             = 4.000000e+10   
     0:c3fn_25od33                                             = 5.350000e+08   
     0:b1fp_25od33                                             =-3.550000e+41   
     0:b2fp_25od33                                             = 0.000000e+00   
     0:b3fp_25od33                                             =-2.225000e+09   
     0:a1fp_25od33                                             = 1.573000e+42   
     0:a2fp_25od33                                             = 0.000000e+00   
     0:a3fp_25od33                                             = 4.825000e+09   
     0:c1fp_25od33                                             = 8.050000e+41   
     0:c2fp_25od33                                             = 4.000000e+10   
     0:c3fp_25od33                                             = 5.350000e+09   
     0:noian_25od33                                            = 2.050000e+41   
     0:noibn_25od33                                            = 4.000000e+10   
     0:noicn_25od33                                            = 5.350000e+08   
     0:noiap_25od33                                            = 8.050000e+41   
     0:noibp_25od33                                            = 4.000000e+10   
     0:noicp_25od33                                            = 5.350000e+09   
     0:noiseflagn                                              = 0.000000e+00   
     0:noiseflagp                                              = 0.000000e+00   
     0:ccoflag                                                 = 0.000000e+00   
     0:rgflag                                                  = 0.000000e+00   
     0:parn1                                                   = 0.000000e+00   
     0:parn2                                                   = 0.000000e+00   
     0:parp1                                                   = 0.000000e+00   
     0:parp2                                                   = 0.000000e+00   
     0:toxp                                                    = 2.200000e-09   
     0:dxwp                                                    = 0.000000e+00   
     0:dxlp                                                    = 0.000000e+00   
     0:dvthp                                                   = 0.000000e+00   
     0:dlvthp                                                  = 0.000000e+00   
     0:dwvthp                                                  = 0.000000e+00   
     0:dpvthp                                                  = 0.000000e+00   
     0:cjp                                                     = 1.060000e-03   
     0:cjswp                                                   = 6.400000e-11   
     0:cjswgp                                                  = 2.550000e-10   
     0:cgop                                                    = 3.018880e-11   
     0:cglp                                                    = 5.247580e-11   
     0:ddlcp                                                   = 4.745380e-09   
     0:cfp                                                     = 1.380000e-10   
     0:drdswp                                                  = 0.000000e+00   
     0:dnfactorp                                               = 0.000000e+00   
     0:dlnfactorp                                              = 0.000000e+00   
     0:dwnfactorp                                              = 0.000000e+00   
     0:dpnfactorp                                              = 0.000000e+00   
     0:du0p                                                    = 0.000000e+00   
     0:dlu0p                                                   = 0.000000e+00   
     0:dwu0p                                                   = 0.000000e+00   
     0:dpu0p                                                   = 0.000000e+00   
     0:deta0p                                                  = 0.000000e+00   
     0:dleta0p                                                 = 0.000000e+00   
     0:dweta0p                                                 = 0.000000e+00   
     0:dpeta0p                                                 = 0.000000e+00   
     0:dvsatp                                                  = 0.000000e+00   
     0:dlvsatp                                                 = 0.000000e+00   
     0:dwvsatp                                                 = 0.000000e+00   
     0:dpvsatp                                                 = 0.000000e+00   
     0:ntoxp                                                   = 1.000000e+00   
     0:dk2p                                                    = 0.000000e+00   
     0:dlk2p                                                   = 0.000000e+00   
     0:dwk2p                                                   = 0.000000e+00   
     0:dpk2p                                                   = 0.000000e+00   
     0:dagsp                                                   = 0.000000e+00   
     0:dwagsp                                                  = 0.000000e+00   
     0:dpclmp                                                  = 0.000000e+00   
     0:dlpclmp                                                 = 0.000000e+00   
     0:dla0p                                                   = 0.000000e+00   
     0:dlagsp                                                  = 0.000000e+00   
     0:dpagsp                                                  = 0.000000e+00   
     0:dwa0p                                                   = 0.000000e+00   
     0:dpa0p                                                   = 0.000000e+00   
     0:dcitp                                                   = 0.000000e+00   
     0:dlcitp                                                  = 0.000000e+00   
     0:dwcitp                                                  = 0.000000e+00   
     0:dpcitp                                                  = 0.000000e+00   
     0:dvoffp                                                  = 0.000000e+00   
     0:dlvoffp                                                 = 0.000000e+00   
     0:dwvoffp                                                 = 0.000000e+00   
     0:dpvoffp                                                 = 0.000000e+00   
     0:da0p                                                    = 0.000000e+00   
     0:jtsswgp                                                 = 7.200000e-10   
     0:dlutep                                                  = 0.000000e+00   
     0:dlatp                                                   = 0.000000e+00   
     0:ff_flag                                                 = 0.000000e+00   
     0:ss_flag                                                 = 0.000000e+00   
     0:fs_flag                                                 = 0.000000e+00   
     0:sf_flag                                                 = 0.000000e+00   
     0:toxn                                                    = 2.000000e-09   
     0:dxwn                                                    = 0.000000e+00   
     0:dxln                                                    = 0.000000e+00   
     0:dvthn                                                   = 0.000000e+00   
     0:dlvthn                                                  = 0.000000e+00   
     0:dwvthn                                                  = 0.000000e+00   
     0:dpvthn                                                  = 0.000000e+00   
     0:cjn                                                     = 1.270000e-03   
     0:cjswn                                                   = 6.400000e-11   
     0:cjswgn                                                  = 3.050000e-10   
     0:cgon                                                    = 5.725430e-11   
     0:cgln                                                    = 9.157840e-12   
     0:ddlcn                                                   = 3.244300e-09   
     0:cfn                                                     = 1.390000e-10   
     0:drdswn                                                  = 0.000000e+00   
     0:dnfactorn                                               = 0.000000e+00   
     0:dlnfactorn                                              = 0.000000e+00   
     0:dwnfactorn                                              = 0.000000e+00   
     0:dpnfactorn                                              = 0.000000e+00   
     0:du0n                                                    = 0.000000e+00   
     0:dlu0n                                                   = 0.000000e+00   
     0:dwu0n                                                   = 0.000000e+00   
     0:dpu0n                                                   = 0.000000e+00   
     0:deta0n                                                  = 0.000000e+00   
     0:dleta0n                                                 = 0.000000e+00   
     0:dweta0n                                                 = 0.000000e+00   
     0:dpeta0n                                                 = 0.000000e+00   
     0:dvsatn                                                  = 0.000000e+00   
     0:dlvsatn                                                 = 0.000000e+00   
     0:dwvsatn                                                 = 0.000000e+00   
     0:dpvsatn                                                 = 0.000000e+00   
     0:ntoxn                                                   = 1.000000e+00   
     0:dk2n                                                    = 0.000000e+00   
     0:dlk2n                                                   = 0.000000e+00   
     0:dwk2n                                                   = 0.000000e+00   
     0:dpk2n                                                   = 0.000000e+00   
     0:dagsn                                                   = 0.000000e+00   
     0:dpclmn                                                  = 0.000000e+00   
     0:dppclmn                                                 = 0.000000e+00   
[...]
 + 5:1       = 1.195563e+00  5:2       = 1.163434e+00  5:3       = 1.099176e+00
 + 5:4       = 1.034918e+00  5:5       = 1.002789e+00  5:6       = 1.200000e+00
 + 5:12      = 1.195563e+00  5:23      = 1.163434e+00  5:34      = 1.099176e+00
 + 5:45      = 1.002789e+00  6:bi      = 1.746070e-08  6:db      = 1.749043e-08
 + 6:di      = 9.978415e-01  6:gi      = 9.999999e-01  6:sb      = 1.747478e-08
 + 6:si      = 4.725886e-01  7:bi      = 1.341640e-09  7:db      = 1.357573e-09
 + 7:di      = 4.690802e-01  7:gi      = 7.999997e-01  7:sb      = 1.347281e-09
 + 7:si      = 1.660611e-01  8:bi      = 1.746070e-08  8:db      = 1.749043e-08
 + 8:di      = 9.978415e-01  8:gi      = 9.999999e-01  8:sb      = 1.747478e-08
 + 8:si      = 4.725886e-01  9:1       = 1.197285e+00  9:2       = 1.012847e+00
 + 9:3       = 6.439696e-01  9:4       = 2.750920e-01  9:5       = 9.065328e-02
 + 9:6       = 1.200000e+00  9:12      = 1.197285e+00  9:23      = 1.012847e+00
 + 9:34      = 6.439696e-01  9:45      = 9.065328e-02 10:1       = 4.389623e-02
 +10:2       = 3.748507e-02 10:3       = 2.466274e-02 10:4       = 1.184041e-02
 +10:5       = 5.429246e-03 10:6       = 1.200000e+00 10:12      = 4.389623e-02
 +10:23      = 3.748507e-02 10:34      = 2.466274e-02 10:45      = 5.429246e-03
 +11:1       = 1.197285e+00 11:2       = 1.012847e+00 11:3       = 6.439696e-01
 +11:4       = 2.750920e-01 11:5       = 9.065328e-02 11:6       = 1.200000e+00
 +11:12      = 1.197285e+00 11:23      = 1.012847e+00 11:34      = 6.439696e-01
 +11:45      = 9.065328e-02 12:bi      = 3.786254e-10 12:db      = 3.804421e-10
 +12:di      = 8.771751e-02 12:gi      = 9.983502e-01 12:sb      = 3.802437e-10
 +12:si      = 7.813510e-02 13:bi      = 3.077019e-10 13:db      = 3.091818e-10
 +13:di      = 7.633840e-02 13:gi      = 7.999991e-01 13:sb      = 3.087114e-10
 +13:si      = 5.207133e-02 14:bi      = 3.786254e-10 14:db      = 3.804421e-10
 +14:di      = 8.771751e-02 14:gi      = 9.983502e-01 14:sb      = 3.802437e-10
 +14:si      = 7.813510e-02


 **** voltage sources

 subckt                                                          
 element     0:vinn        0:vinp        0:vvdd        0:vvg     
  volts    1.000000e+00  1.000000e+00  1.200000e+00  8.000000e-01
  current -1.031141e-08 -1.031141e-08 -6.501047e-03 -1.035183e-07
  power    1.031141e-08  1.031141e-08  7.801256e-03  8.281461e-08

 subckt                
 element     0:vvss    
  volts    0.000000e+00
  current  1.241411e-07
  power    0.000000e+00

     total voltage source power dissipation=  7.801360e-03    watts



 **** resistors

 subckt   xi0.xr0       xi0.xr0       xi0.xr0       xi0.xr0      
 element     3:rend1       3:r1          3:r2          3:r3      
  r value  2.200000e+00  1.593043e+01  3.186087e+01  3.186087e+01
  v drop   4.437022e-03  3.212895e-02  6.425790e-02  6.425790e-02
  current  2.016828e-03  2.016828e-03  2.016828e-03  2.016828e-03
  power    8.948710e-06  6.479857e-05  1.295971e-04  1.295971e-04

 subckt   xi0.xr0       xi0.xr0       xi0.xr0       xi0.xr2      
 element     3:r4          3:rend2       3:rsub        4:rend1   
  r value  1.593043e+01  2.200000e+00  5.876655e+01  2.200000e+00
  v drop   3.212895e-02  4.437022e-03  0.000000e+00  8.873330e-03
  current  2.016828e-03  2.016828e-03  0.000000e+00  4.033332e-03
  power    6.479857e-05  8.948710e-06  0.000000e+00  3.578908e-05

 subckt   xi0.xr2       xi0.xr2       xi0.xr2       xi0.xr2      
 element     4:r1          4:r2          4:r3          4:r4      
  r value  5.931023e+00  1.186204e+01  1.186204e+01  5.931023e+00
  v drop   2.392178e-02  4.784357e-02  4.784357e-02  2.392178e-02
  current  4.033332e-03  4.033332e-03  4.033332e-03  4.033332e-03
  power    9.648449e-05  1.929690e-04  1.929690e-04  9.648449e-05

 subckt   xi0.xr2       xi0.xr2       xi0.xr1       xi0.xr1      
 element     4:rend2       4:rsub        5:rend1       5:r1      
  r value  2.200000e+00  9.173790e+01  2.200000e+00  1.593043e+01
  v drop   8.873330e-03  0.000000e+00  4.437022e-03  3.212895e-02
  current  4.033332e-03  0.000000e+00  2.016828e-03  2.016828e-03
  power    3.578908e-05  0.000000e+00  8.948710e-06  6.479857e-05

 subckt   xi0.xr1       xi0.xr1       xi0.xr1       xi0.xr1      
 element     5:r2          5:r3          5:r4          5:rend2   
  r value  3.186087e+01  3.186087e+01  1.593043e+01  2.200000e+00
  v drop   6.425790e-02  6.425790e-02  3.212895e-02  4.437022e-03
  current  2.016828e-03  2.016828e-03  2.016828e-03  2.016828e-03
  power    1.295971e-04  1.295971e-04  6.479857e-05  8.948710e-06

 subckt   xi0.xr1       xi0.xm0       xi0.xm0       xi0.xm0      
 element     5:rsub        6:rg          6:rs          6:rd      
  r value  5.876655e+01  1.399717e+01  1.159846e+00  2.532524e-01
  v drop   0.000000e+00  1.443307e-07 -2.339014e-03  5.107208e-04
  current  0.000000e+00  1.031141e-08 -2.016657e-03  2.016647e-03
  power    0.000000e+00  1.488254e-15  4.716989e-06  1.029944e-06

 subckt   xi0.xm0       xi0.xm0       xi0.xm0       xi0.xm2      
 element     6:rb          6:rdb         6:rsb         7:rg      
  r value  9.348042e+01  1.490000e+01  1.490000e+01  1.532268e+01
  v drop  -1.746070e-08  2.973580e-11  1.408328e-11  2.656045e-07
  current -1.867845e-10  1.995691e-12  9.451867e-13  1.733407e-08
  power    3.261389e-18  5.934348e-23  1.331133e-23  4.604007e-15

 subckt   xi0.xm2       xi0.xm2       xi0.xm2       xi0.xm2      
 element     7:rs          7:rd          7:rb          7:rdb     
  r value  1.186041e+00  2.899465e-01  9.857942e+01  1.698333e+01
  v drop  -4.783699e-03  1.169445e-03 -1.341640e-09  1.593321e-11
  current -4.033332e-03  4.033314e-03 -1.360974e-11  9.381674e-13
  power    1.929424e-05  4.716740e-06  1.825937e-20  1.494802e-23

 subckt   xi0.xm2       xi0.xm1       xi0.xm1       xi0.xm1      
 element     7:rsb         8:rg          8:rs          8:rd      
  r value  1.698333e+01  1.399717e+01  1.159846e+00  2.532524e-01
  v drop   5.640682e-12  1.443307e-07 -2.339014e-03  5.107208e-04
  current  3.321304e-13  1.031141e-08 -2.016657e-03  2.016647e-03
  power    1.873442e-24  1.488254e-15  4.716989e-06  1.029944e-06

 subckt   xi0.xm1       xi0.xm1       xi0.xm1       xi2.xr0      
 element     8:rb          8:rdb         8:rsb         9:rend1   
  r value  9.348042e+01  1.490000e+01  1.490000e+01  2.200000e+00
  v drop  -1.746070e-08  2.973580e-11  1.408328e-11  2.714130e-03
  current -1.867845e-10  1.995691e-12  9.451867e-13  1.233695e-03
  power    3.261389e-18  5.934348e-23  1.331133e-23  3.348410e-06

 subckt   xi2.xr0       xi2.xr0       xi2.xr0       xi2.xr0      
 element     9:r1          9:r2          9:r3          9:r4      
  r value  1.495010e+02  2.990021e+02  2.990021e+02  1.495010e+02
  v drop   1.844388e-01  3.688775e-01  3.688775e-01  1.844388e-01
  current  1.233695e-03  1.233695e-03  1.233695e-03  1.233695e-03
  power    2.275413e-04  4.550825e-04  4.550825e-04  2.275413e-04

 subckt   xi2.xr0       xi2.xr0       xi2.xr2       xi2.xr2      
 element     9:rend2       9:rsub       10:rend1      10:r1      
  r value  2.200000e+00  7.539430e+00  2.200000e+00  2.597886e+00
  v drop   2.714130e-03  0.000000e+00  5.429246e-03  6.411165e-03
  current  1.233695e-03  0.000000e+00  2.467839e-03  2.467839e-03
  power    3.348410e-06  0.000000e+00  1.339850e-05  1.582172e-05

 subckt   xi2.xr2       xi2.xr2       xi2.xr2       xi2.xr2      
 element    10:r2         10:r3         10:r4         10:rend2   
  r value  5.195772e+00  5.195772e+00  2.597886e+00  2.200000e+00
  v drop   1.282233e-02  1.282233e-02  6.411165e-03  5.429246e-03
  current  2.467839e-03  2.467839e-03  2.467839e-03  2.467839e-03
  power    3.164344e-05  3.164344e-05  1.582172e-05  1.339850e-05

 subckt   xi2.xr2       xi2.xr1       xi2.xr1       xi2.xr1      
 element    10:rsub       11:rend1      11:r1         11:r2      
  r value  9.346748e+01  2.200000e+00  1.495010e+02  2.990021e+02
  v drop   0.000000e+00  2.714130e-03  1.844388e-01  3.688775e-01
  current  0.000000e+00  1.233695e-03  1.233695e-03  1.233695e-03
  power    0.000000e+00  3.348410e-06  2.275413e-04  4.550825e-04

 subckt   xi2.xr1       xi2.xr1       xi2.xr1       xi2.xr1      
 element    11:r3         11:r4         11:rend2      11:rsub    
  r value  2.990021e+02  1.495010e+02  2.200000e+00  7.539430e+00
  v drop   3.688775e-01  1.844388e-01  2.714130e-03  0.000000e+00
  current  1.233695e-03  1.233695e-03  1.233695e-03  0.000000e+00
  power    4.550825e-04  2.275413e-04  3.348410e-06  0.000000e+00

 subckt   xi2.xm0       xi2.xm0       xi2.xm0       xi2.xm0      
 element    12:rg         12:rs         12:rd         12:rb      
  r value  1.122175e+01  1.115576e+00  1.796550e-01  7.666767e+01
  v drop   2.031043e-06 -1.376483e-03  2.216395e-04 -3.786254e-10
  current  1.809916e-07 -1.233876e-03  1.233695e-03 -4.938527e-12
  power    3.676018e-13  1.698410e-06  2.734356e-07  1.869852e-21

 subckt   xi2.xm0       xi2.xm0       xi2.xm2       xi2.xm2      
 element    12:rdb        12:rsb        13:rg         13:rs      
  r value  1.035454e+01  1.035454e+01  1.084372e+01  1.112653e+00
  v drop   1.816680e-12  1.618247e-12  9.345573e-07 -2.745851e-03
  current  1.754476e-13  1.562837e-13  8.618419e-08 -2.467839e-03
  power    3.187323e-25  2.529057e-25  8.054406e-14  6.776317e-06

 subckt   xi2.xm2       xi2.xm2       xi2.xm2       xi2.xm2      
 element    13:rd         13:rb         13:rdb        13:rsb     
  r value  1.702842e-01  7.323818e+01  9.691666e+00  9.691666e+00
  v drop   4.202192e-04 -3.077019e-10  1.479823e-12  1.009446e-12
  current  2.467753e-03 -4.201387e-12  1.526903e-13  1.041560e-13
  power    1.036997e-06  1.292775e-21  2.259547e-25  1.051398e-25

 subckt   xi2.xm1       xi2.xm1       xi2.xm1       xi2.xm1      
 element    14:rg         14:rs         14:rd         14:rb      
  r value  1.122175e+01  1.115576e+00  1.796550e-01  7.666767e+01
  v drop   2.031043e-06 -1.376483e-03  2.216395e-04 -3.786254e-10
  current  1.809916e-07 -1.233876e-03  1.233695e-03 -4.938527e-12
  power    3.676018e-13  1.698410e-06  2.734356e-07  1.869852e-21

 subckt   xi2.xm1       xi2.xm1      
 element    14:rdb        14:rsb     
  r value  1.035454e+01  1.035454e+01
  v drop   1.816680e-12  1.618247e-12
  current  1.754476e-13  1.562837e-13
  power    3.187323e-25  2.529057e-25


 **** inductors

 subckt   xi0.xr0.      xi0.xr0.      xi0.xr0.      xi0.xr0.     
 element     3:ls1         3:ls2         3:ls3         3:ls4     
  l value  7.969486e-13  1.593897e-12  1.593897e-12  7.969486e-13
  v drop  -2.220446e-16  0.000000e+00  0.000000e+00  0.000000e+00
  current  0.000000e+00  0.000000e+00  0.000000e+00  0.000000e+00
  power    0.000000e+00  0.000000e+00  0.000000e+00  0.000000e+00

 subckt   xi0.xr2.      xi0.xr2.      xi0.xr2.      xi0.xr2.     
 element     4:ls1         4:ls2         4:ls3         4:ls4     
  l value  2.016207e-13  4.032414e-13  4.032414e-13  2.016207e-13
  v drop  -2.220446e-16  0.000000e+00  0.000000e+00  0.000000e+00
  current  0.000000e+00  0.000000e+00  0.000000e+00  0.000000e+00
  power    0.000000e+00  0.000000e+00  0.000000e+00  0.000000e+00

 subckt   xi0.xr1.      xi0.xr1.      xi0.xr1.      xi0.xr1.     
 element     5:ls1         5:ls2         5:ls3         5:ls4     
  l value  7.969486e-13  1.593897e-12  1.593897e-12  7.969486e-13
  v drop   7.771561e-15  0.000000e+00  0.000000e+00  0.000000e+00
  current  0.000000e+00  0.000000e+00  0.000000e+00  0.000000e+00
  power    0.000000e+00  0.000000e+00  0.000000e+00  0.000000e+00

 subckt   xi2.xr0.      xi2.xr0.      xi2.xr0.      xi2.xr0.     
 element     9:ls1         9:ls2         9:ls3         9:ls4     
  l value  1.293501e-11  2.587002e-11  2.587002e-11  1.293501e-11
  v drop   1.354472e-14  0.000000e+00  0.000000e+00  0.000000e+00
  current  0.000000e+00  0.000000e+00  0.000000e+00  0.000000e+00
  power    0.000000e+00  0.000000e+00  0.000000e+00  0.000000e+00

 subckt   xi2.xr2.      xi2.xr2.      xi2.xr2.      xi2.xr2.     
 element    10:ls1        10:ls2        10:ls3        10:ls4     
  l value  5.380660e-14  1.076132e-13  1.076132e-13  5.380660e-14
  v drop  -2.081668e-17  0.000000e+00  0.000000e+00  0.000000e+00
  current  0.000000e+00  0.000000e+00  0.000000e+00  0.000000e+00
  power    0.000000e+00  0.000000e+00  0.000000e+00  0.000000e+00

 subckt   xi2.xr1.      xi2.xr1.      xi2.xr1.      xi2.xr1.     
 element    11:ls1        11:ls2        11:ls3        11:ls4     
  l value  1.293501e-11  2.587002e-11  2.587002e-11  1.293501e-11
  v drop   8.726353e-14  0.000000e+00  0.000000e+00  0.000000e+00
  current  0.000000e+00  0.000000e+00  0.000000e+00  0.000000e+00
  power    0.000000e+00  0.000000e+00  0.000000e+00  0.000000e+00


 **** diodes


 subckt        xi0.xm0       xi0.xm0       xi0.xm0       xi0.xm0 
 element     6:dss         6:ddd         6:dsg         6:ddg     
 model       6:ndio_rf_    6:ndio_rf_    6:ndio_rf_    6:ndio_rf_
  id      -1.478400e-18 -1.293600e-18 -8.000128e-18 -7.000129e-18
  vd      -4.725886e-01 -9.978415e-01 -4.725886e-01 -9.978415e-01
  req      1.694547e+24  0.000000e+00  3.131481e+23  0.000000e+00
  cap      4.376131e-15  3.422013e-15  6.966210e-15  4.630941e-15



 subckt        xi0.xm2       xi0.xm2       xi0.xm2       xi0.xm2 
 element     7:dss         7:ddd         7:dsg         7:ddg     
 model       7:ndio_rf_    7:ndio_rf_    7:ndio_rf_    7:ndio_rf_
  id      -1.291583e-18 -1.108800e-18 -6.989214e-18 -6.000130e-18
  vd      -1.660611e-01 -4.690802e-01 -1.660611e-01 -4.690802e-01
  req      1.275002e+19  1.971004e+24  2.356162e+18  3.642326e+23
  cap      4.199756e-15  3.285093e-15  7.483764e-15  5.236021e-15



 subckt        xi0.xm1       xi0.xm1       xi0.xm1       xi0.xm1 
 element     8:dss         8:ddd         8:dsg         8:ddg     
 model       8:ndio_rf_    8:ndio_rf_    8:ndio_rf_    8:ndio_rf_
  id      -1.478400e-18 -1.293600e-18 -8.000128e-18 -7.000129e-18
  vd      -4.725886e-01 -9.978415e-01 -4.725886e-01 -9.978415e-01
  req      1.694547e+24  0.000000e+00  3.131481e+23  0.000000e+00
  cap      4.376131e-15  3.422013e-15  6.966210e-15  4.630941e-15



 subckt        xi2.xm0       xi2.xm0       xi2.xm0       xi2.xm0 
 element    12:dss        12:ddd        12:dsg        12:ddg     
 model      12:ndio_rf_   12:ndio_rf_   12:ndio_rf_   12:ndio_rf_
  id      -2.111653e-18 -1.965916e-18 -1.142681e-17 -1.063820e-17
  vd      -7.813510e-02 -8.771751e-02 -7.813510e-02 -8.771751e-02
  req      2.427330e+17  3.845018e+17  4.485664e+16  7.105517e+16
  cap      7.439036e-15  6.793643e-15  1.372785e-14  1.248849e-14



 subckt        xi2.xm2       xi2.xm2       xi2.xm2       xi2.xm2 
 element    13:dss        13:ddd        13:dsg        13:ddg     
 model      13:ndio_rf_   13:ndio_rf_   13:ndio_rf_   13:ndio_rf_
  id      -2.085857e-18 -2.103979e-18 -1.128721e-17 -1.138528e-17
  vd      -5.207133e-02 -7.633840e-02 -5.207133e-02 -7.633840e-02
  req      8.124288e+16  2.263380e+17  1.501355e+16  4.182686e+16
  cap      8.143371e-15  7.444297e-15  1.518766e-14  1.374756e-14



 subckt        xi2.xm1       xi2.xm1       xi2.xm1       xi2.xm1 
 element    14:dss        14:ddd        14:dsg        14:ddg     
 model      14:ndio_rf_   14:ndio_rf_   14:ndio_rf_   14:ndio_rf_
  id      -2.111653e-18 -1.965916e-18 -1.142681e-17 -1.063820e-17
  vd      -7.813510e-02 -8.771751e-02 -7.813510e-02 -8.771751e-02
  req      2.427330e+17  3.845018e+17  4.485664e+16  7.105517e+16
  cap      7.439036e-15  6.793643e-15  1.372785e-14  1.248849e-14





 **** mosfets


 subckt   xi0.xm0       xi0.xm2       xi0.xm1       xi2.xm0      
 element     6:m0          7:m0          8:m0         12:m0      
 model       6:nch_rf.2    7:nch_rf.2    6:nch_rf.2   12:nch_rf.2
 region     Saturation    Saturation    Saturation      Linear   
  id       2.016650e-03  4.033320e-03  2.016650e-03  1.233785e-03
  ibs     -1.201401e-11 -2.638559e-12 -1.201401e-11 -2.210311e-12
  ibd     -1.611724e-10 -9.700766e-12 -1.611724e-10 -2.396427e-12
  vgs      5.274112e-01  6.339387e-01  5.274112e-01  9.202151e-01
  vds      5.252529e-01  3.030191e-01  5.252529e-01  9.582407e-03
  vbs     -4.725886e-01 -1.660611e-01 -4.725886e-01 -7.813510e-02
  vth      4.649989e-01  4.426831e-01  4.649989e-01  4.492176e-01
  vdsat    9.841606e-02  1.416076e-01  9.841606e-02  2.193893e-01
  vod      6.241237e-02  1.912556e-01  6.241237e-02  4.709975e-01
  beta     3.046670e-01  2.533318e-01  3.046670e-01  4.175524e-01
  gam eff  2.475300e-01  2.475300e-01  2.475300e-01  2.475300e-01
  gm       2.109939e-02  2.429223e-02  2.109939e-02  2.043948e-03
  gds      2.901327e-03  5.369368e-03  2.901327e-03  1.720298e-01
  gmb      2.686741e-03  3.771966e-03  2.686741e-03  4.568923e-04
  cdtot    6.641555e-15  6.128400e-15  6.641555e-15  1.886160e-14
  cgtot    2.256171e-14  2.103137e-14  2.256171e-14  4.683321e-14
  cstot    1.301607e-14  1.214428e-14  1.301607e-14  2.205935e-14
  cbtot    1.643504e-15  1.631913e-15  1.643504e-15  3.096936e-15
  cgs      1.570530e-14  1.484684e-14  1.570530e-14  2.579603e-14
  cgd      6.300754e-15  5.941481e-15  6.300754e-15  2.220241e-14



 subckt   xi2.xm2       xi2.xm1      
 element    13:m0         14:m0      
 model      13:nch_rf.2   12:nch_rf.2
 region       Linear        Linear   
  id       2.467795e-03  1.233785e-03
  ibs     -1.690253e-12 -2.210311e-12
  ibd     -2.254056e-12 -2.396427e-12
  vgs      7.479277e-01  9.202151e-01
  vds      2.426707e-02  9.582407e-03
  vbs     -5.207133e-02 -7.813510e-02
  vth      4.440021e-01  4.492176e-01
  vdsat    1.764598e-01  2.193893e-01
  vod      3.039256e-01  4.709975e-01
  beta     4.889176e-01  4.175524e-01
  gam eff  2.475300e-01  2.475300e-01
  gm       7.290517e-03  2.043948e-03
  gds      1.169546e-01  1.720298e-01
  gmb      1.336829e-03  4.568923e-04
  cdtot    2.023384e-14  1.886160e-14
  cgtot    5.023209e-14  4.683321e-14
  cstot    2.374470e-14  2.205935e-14
  cbtot    3.450917e-15  3.096936e-15
  cgs      2.759532e-14  2.579603e-14
  cgd      2.370212e-14  2.220241e-14




          ***** job concluded
1****** HSPICE -- F-2011.09-SP2 32-BIT (Feb 27 2012) linux ******               
 ******  
 *** differential amplifier ***

  ******  job statistics summary tnom=  25.000 temp=  25.000 *****
  
  
 ******  Machine Information  ******
 CPU:
 model name	: Intel(R) Xeon(R) CPU           W3580  @ 3.33GHz
 cpu MHz	: 3334.000
  
 OS:
 Linux version 2.6.18-194.32.1.el5 (mockbuild@builder10.centos.org) (gcc version
  4.1.2 20080704 (Red Hat 4.1.2-48)) #1 SMP Wed Jan 5 17:52:25 EST 2011


  ******  HSPICE Threads Information  ******

  Command Line Threads Count :     1
  Available CPU Count        :     4
  Actual Threads Count       :     1


  ******  Circuit Statistics  ******
  # nodes       =     122 # elements   =     179
  # resistors   =      78 # capacitors =      42 # inductors   =      24
  # mutual_inds =       0 # vccs       =       0 # vcvs        =       0
  # cccs        =       0 # ccvs       =       0 # volt_srcs   =       5
  # curr_srcs   =       0 # diodes     =      24 # bjts        =       0
  # jfets       =       0 # mosfets    =       6 # U elements  =       0
  # T elements  =       0 # W elements =       0 # B elements  =       0
  # S elements  =       0 # P elements =       0 # va device   =       0
  # vector_srcs =       0


  ******  Runtime Statistics (seconds)  ******

  analysis           time    # points   tot. iter  conv.iter
  op point           0.01           1          11
  ac analysis        0.18        4001        4001
  readin             0.25
  errchk             0.02
  setup              0.00
  output             0.00


           peak memory used         96.65 megabytes
           total cpu time            0.46 seconds
           total elapsed time        1.45 seconds
           job started at     12:16:40 06/11/2015
           job ended   at     12:16:42 06/11/2015


 lic: Release hspice token(s) 
